sistemas/EXIC/NE224-C2/EXIC_NE224-C2JPMOD183_1.LIS
CEPEL - CENTRO DE PESQUISAS DE ENERGIA ELETRICA - PROGRAMA DE ANALISE DE REDES - V11.07.02                                 PAG.   6

 **EPE DECENAL 2032** PESADA ** ANO 2026 ** NORTE SECO                           
 RELATORIO DE EXECUCAO DO FLUXO DE POTENCIA CONTINUADO

 Opcoes Ativadas: CREM CTAP STEP BPSI NEWT RCVG RMON FILE CONT CELO ATCR INDC STPO CTAF CTAF

 X----X----------------X--------------------------X-------------X---------X
                            AUMENTO DA CARGA                               
  NUM.   CONVERGENCIA        ATIVA E REATIVA (%)   CARGA DA AREA PASSO MAX 
          STATUS    P/Q  MAXIMO    AREA    SISTEMA   MW / Mvar    P/Q (%)  
 X----X------------X---X--------X--------X--------X-------------X---------X

     0 Convergente    1    0.000    0.000    0.000 15771.90 MW      0.6000
                      1    0.000    0.000    0.000  -594.67 Mvar    1.0000
     1 Convergente    2    0.600    0.600    0.600 15866.53 MW      0.6000
                      2    1.000    1.000    1.000  -600.62 Mvar    1.0000
     2 Convergente    2    1.200    1.200    1.200 15961.16 MW      0.6000
                      2    2.000    2.000    2.000  -606.57 Mvar    1.0000
     3 Convergente    2    1.800    1.800    1.800 16055.79 MW      0.6000
                      2    3.000    3.000    3.000  -612.51 Mvar    1.0000
     4 Convergente    2    2.400    2.400    2.400 16150.42 MW      0.6000
                      2    4.000    4.000    4.000  -618.46 Mvar    1.0000
     5 Convergente    2    3.000    3.000    3.000 16245.05 MW      0.6000
                      2    5.000    5.000    5.000  -624.41 Mvar    1.0000
     6 Convergente    2    3.600    3.600    3.600 16339.69 MW      0.6000
                      2    6.000    6.000    6.000  -630.35 Mvar    1.0000
     7 Convergente    2    4.200    4.200    4.200 16434.32 MW      0.6000
                      2    7.000    7.000    7.000  -636.30 Mvar    1.0000
     8 Convergente    2    4.800    4.800    4.800 16528.95 MW      0.6000
                      2    8.000    8.000    8.000  -642.25 Mvar    1.0000
     9 Convergente    2    5.400    5.400    5.400 16623.58 MW      0.6000
                      2    9.000    9.000    9.000  -648.19 Mvar    1.0000
    10 Convergente    2    6.000    6.000    6.000 16718.21 MW      0.6000
                      2   10.000   10.000   10.000  -654.14 Mvar    1.0000
    11 Convergente    2    6.600    6.600    6.600 16812.84 MW      0.6000
                      2   11.000   11.000   11.000  -660.09 Mvar    1.0000
    12 Convergente    2    7.200    7.200    7.200 16907.47 MW      0.6000
                      2   12.000   12.000   12.000  -666.03 Mvar    1.0000
    13 Convergente    2    7.800    7.800    7.800 17002.11 MW      0.6000
                      2   13.000   13.000   13.000  -671.98 Mvar    1.0000
    14 Convergente    2    8.400    8.400    8.400 17096.74 MW      0.6000
                      2   14.000   14.000   14.000  -677.93 Mvar    1.0000
    15 Convergente    2    9.000    9.000    9.000 17191.37 MW      0.6000
                      2   15.000   15.000   15.000  -683.88 Mvar    1.0000
    16 Convergente    2    9.600    9.600    9.600 17286.00 MW      0.6000
                      2   16.000   16.000   16.000  -689.82 Mvar    1.0000
    17 Convergente    2   10.200   10.200   10.200 17380.63 MW      0.6000
                      2   17.000   17.000   17.000  -695.77 Mvar    1.0000
    18 Convergente    2   10.800   10.800   10.800 17475.26 MW      0.6000
                      2   18.000   18.000   18.000  -701.72 Mvar    1.0000
    19 Convergente    3   11.400   11.400   11.400 17569.89 MW      0.6000
                      3   19.000   19.000   19.000  -707.66 Mvar    1.0000
    20 Convergente    2   12.000   12.000   12.000 17664.53 MW      0.6000
                      2   20.000   20.000   20.000  -713.61 Mvar    1.0000
    21 Convergente    2   12.600   12.600   12.600 17759.16 MW      0.6000
                      2   21.000   21.000   21.000  -719.56 Mvar    1.0000
CEPEL - CENTRO DE PESQUISAS DE ENERGIA ELETRICA - PROGRAMA DE ANALISE DE REDES - V11.07.02                                 PAG.   7

    13.2000                                                                      
 RELATORIO DE EXECUCAO DO FLUXO DE POTENCIA CONTINUADO

 Opcoes Ativadas: CREM CTAP STEP BPSI NEWT RCVG RMON FILE CONT CELO ATCR INDC STPO CTAF CTAF

 X----X----------------X--------------------------X-------------X---------X
                            AUMENTO DA CARGA                               
  NUM.   CONVERGENCIA        ATIVA E REATIVA (%)   CARGA DA AREA PASSO MAX 
          STATUS    P/Q  MAXIMO    AREA    SISTEMA   MW / Mvar    P/Q (%)  
 X----X------------X---X--------X--------X--------X-------------X---------X

    22 Convergente    2   13.200   13.200   13.200 17853.79 MW      0.6000
                      2   22.000   22.000   22.000  -725.50 Mvar    1.0000
    23 Convergente    2   13.800   13.800   13.800 17948.42 MW      0.6000
                      2   23.000   23.000   23.000  -731.45 Mvar    1.0000
    24 Convergente    2   14.400   14.400   14.400 18043.05 MW      0.6000
                      2   24.000   24.000   24.000  -737.40 Mvar    1.0000
    25 Convergente    2   15.000   15.000   15.000 18137.68 MW      0.6000
                      2   25.000   25.000   25.000  -743.34 Mvar    1.0000
    26 Convergente    2   15.600   15.600   15.600 18232.31 MW      0.6000
                      2   26.000   26.000   26.000  -749.29 Mvar    1.0000
    27 Convergente    2   16.200   16.200   16.200 18326.95 MW      0.6000
                      2   27.000   27.000   27.000  -755.24 Mvar    1.0000
    28 Convergente    2   16.800   16.800   16.800 18421.58 MW      0.6000
                      2   28.000   28.000   28.000  -761.18 Mvar    1.0000
    29 Convergente    2   17.400   17.400   17.400 18516.21 MW      0.6000
                      2   29.000   29.000   29.000  -767.13 Mvar    1.0000
    30 Convergente    2   18.000   18.000   18.000 18610.84 MW      0.6000
                      2   30.000   30.000   30.000  -773.08 Mvar    1.0000
 
 Numero maximo de iteracoes atingido
CEPEL - CENTRO DE PESQUISAS DE ENERGIA ELETRICA - PROGRAMA DE ANALISE DE REDES - V11.07.02                                 PAG.   8

 **EPE DECENAL 2032** PESADA ** ANO 2026 ** NORTE SECO                           
 RELATORIO DE TOTAIS DE AREA

 X----X--------X--------X--------X--------X--------X--------X--------X--------X
  AREA  GERACAO  INJ EQV   CARGA   ELO CC    SHUNT   EXPORT   IMPORT   PERDAS
  NUM.    MW/      MW/      MW/      MW/     Mvar/     MW/      MW/      MW/
         Mvar     Mvar     Mvar     Mvar     EQUIV    Mvar     Mvar     Mvar
 X----X--------X--------X--------X--------X--------X--------X--------X--------X

   200  19374.3      0.0  18610.8      0.0   2754.3      0.0      0.0    763.4
        -4369.6      0.0   -773.1      0.0      0.0      0.0      0.0   -842.2

 TOTAL  19374.3      0.0  18610.8      0.0   2754.3      0.0      0.0    763.4
        -4369.6      0.0   -773.1      0.0      0.0      0.0      0.0   -842.2
CEPEL - CENTRO DE PESQUISAS DE ENERGIA ELETRICA - PROGRAMA DE ANALISE DE REDES - V11.07.02                                 PAG.   9

 **EPE DECENAL 2032** PESADA ** ANO 2026 ** NORTE SECO                           
 Listagem dos casos armazenados de Fluxo de Potencia - ANAREDE
 Arquivo Historico: C:\USERS\JOAOPEDROPETERSBARBO\DROPBOX\GITPYANA\PYANA\SISTEMAS\EXIC\NE224-C2\EXLF
 X----X-------------------------------------------------------------------------------------X
  CASO                      INFORMACOES DO CASO GRAVADO
 X----X-------------------------------------------------------------------------------------X

     1 DATA: 06/01/2025 / HORA: 12:15:49   / VERSAO DO PROGRAMA: V11.07.02             
 --------------------------------------------------------------------------------
                                   Comentarios                                   
 --------------------------------------------------------------------------------
     (-------------------------------- Comentarios ------------------------------
 ---)                                                                            
 SISTEMA NE REDUZIDO                                                             
CEPEL - CENTRO DE PESQUISAS DE ENERGIA ELETRICA - PROGRAMA DE ANALISE DE REDES - V11.07.02                                 PAG.  10

 **EPE DECENAL 2032** PESADA ** ANO 2026 ** NORTE SECO                           
 RELATORIO DE PADRAO PARA OPCOES DE EXECUCAO

 X------X------X------X------X------X------X------X------X------X------X
  OPCAO  OPCAO  OPCAO  OPCAO  OPCAO  OPCAO  OPCAO  OPCAO  OPCAO  OPCAO
  NOME E NOME E NOME E NOME E NOME E NOME E NOME E NOME E NOME E NOME E
 X----X-X----X-X----X-X----X-X----X-X----X-X----X-X----X-X----X-X----X-X

  CREM L CTAP L STEP L NEWT L RCVG L RMON L FILE L SUBS L CONT L NOVO L
  CELO L MFCT L ATCR L INDC L AREG L STPO L VLCR L CPHS L


 *** AVISO ***: Nao foram encontradas inconsistencias no arquivo historico e ele sera restabelecido normalmente.
CEPEL - CENTRO DE PESQUISAS DE ENERGIA ELETRICA - PROGRAMA DE ANALISE DE REDES - V11.07.02                                 PAG.  11

 **EPE DECENAL 2032** PESADA ** ANO 2026 ** NORTE SECO                           
 RELATORIO DE CONVERGENCIA

 OPCOES ATIVADAS: CREM CTAP STEP BPSI NEWT RCVG RMON FILE CONT CELO ATCR INDC STPO VLCR CPHS





 CONVERGENCIA FINAL

 X-----------X------X------X---------------X---------------X---------------X
    ITERACAO          FREQ. ERRO MAX BARRA  ERRO MAX BARRA  ERRO MAX  CONV  
  FC  P  Q  V  M.O.   (Hz)      MW    NUM.     Mvar   NUM.  TENSAO %  NUM.  
 X--X--X--X--X------X------X---------X-----X---------X-----X---------X-----X

   0                             0.00     0      0.00     0
      0  0  0 1.0000 60.000      0.00   587      0.00   500     0.000     0
CEPEL - CENTRO DE PESQUISAS DE ENERGIA ELETRICA - PROGRAMA DE ANALISE DE REDES - V11.07.02                                 PAG.  12

 **EPE DECENAL 2032** PESADA ** ANO 2026 ** NORTE SECO                           

 --- CASO ANAREDE 02 GRAVADO. ---
 **EPE DECENAL 2032** PESADA ** ANO 2026 ** NORTE SECO                           

